Alpine_106pen.dss
Clear

 New Circuit.Alpine_106pen bus1=SourceBus basekv=12 pu=1 MVAsc3=20000 MVAsc1=21000
New Line.0355_03551 Phases=3 bus1=0355.1.2.3 bus2=03551.1.2.3 Units=km Length=0.033924 Rmatrix=[0.12456            0.03762            0.03762| 0.03762            0.12456            0.03762| 0.03762            0.03762            0.12456|] Xmatrix=[ 0.6121            0.23447            0.23447| 0.23447             0.6121            0.23447| 0.23447            0.23447             0.6121|] Cmatrix=[0                  0                  0| 0                  0                  0| 0                  0                  0|]
New Line.03551_03552 Phases=3 bus1=03551.1.2.3 bus2=03552.1.2.3 Units=km Length=0.020955 Rmatrix=[0.12456            0.03762            0.03762| 0.03762            0.12456            0.03762| 0.03762            0.03762            0.12456|] Xmatrix=[ 0.6121            0.23447            0.23447| 0.23447             0.6121            0.23447| 0.23447            0.23447             0.6121|] Cmatrix=[0                  0                  0| 0                  0                  0| 0                  0                  0|]
New Line.03552_03552a Phases=3 bus1=03552.1.2.3 bus2=03552a.1.2.3 Units=km Length=0.003048 Rmatrix=[0.12456            0.03762            0.03762| 0.03762            0.12456            0.03762| 0.03762            0.03762            0.12456|] Xmatrix=[ 0.6121            0.23447            0.23447| 0.23447             0.6121            0.23447| 0.23447            0.23447             0.6121|] Cmatrix=[0                  0                  0| 0                  0                  0| 0                  0                  0|]
New Line.035510_035511 Phases=3 bus1=035510.1.2.3 bus2=035511.1.2.3 Units=km Length=0.049469 Rmatrix=[ 0.13353           0.033136           0.033136| 0.033136            0.13353           0.033136| 0.033136           0.033136            0.13353|] Xmatrix=[0.61516            0.23294            0.23294| 0.23294            0.61516            0.23294| 0.23294            0.23294            0.61516|] Cmatrix=[0                  0                  0| 0                  0                  0| 0                  0                  0|]
New Line.035510_035510a Phases=1 bus1=035510.1 bus2=035510a.1 Units=km Length=0.003048 Rmatrix=0.086942 Xmatrix=0.37762 Cmatrix=0
New Line.035511_035512 Phases=3 bus1=035511.1.2.3 bus2=035512.1.2.3 Units=km Length=0.042245 Rmatrix=[ 0.13353           0.033136           0.033136| 0.033136            0.13353           0.033136| 0.033136           0.033136            0.13353|] Xmatrix=[0.61516            0.23294            0.23294| 0.23294            0.61516            0.23294| 0.23294            0.23294            0.61516|] Cmatrix=[0                  0                  0| 0                  0                  0| 0                  0                  0|]
New Line.035510a_03551001 Phases=1 bus1=035510a.1 bus2=03551001.1 Units=km Length=0.020117 Rmatrix=0.5935 Xmatrix=0.47277 Cmatrix=0
New Line.035512_03551201 Phases=3 bus1=035512.1.2.3 bus2=03551201.1.2.3 Units=km Length=0.025237 Rmatrix=[ 1.1475            0.13703            0.13703| 0.13703             1.1475            0.13703| 0.13703            0.13703             1.1475|] Xmatrix=[0.87981            0.35619            0.35619| 0.35619            0.87981            0.35619| 0.35619            0.35619            0.87981|] Cmatrix=[0                  0                  0| 0                  0                  0| 0                  0                  0|]
New Line.035512_035513 Phases=3 bus1=035512.1.2.3 bus2=035513.1.2.3 Units=km Length=0.12293 Rmatrix=[ 0.13353           0.033136           0.033136| 0.033136            0.13353           0.033136| 0.033136           0.033136            0.13353|] Xmatrix=[0.61516            0.23294            0.23294| 0.23294            0.61516            0.23294| 0.23294            0.23294            0.61516|] Cmatrix=[0                  0                  0| 0                  0                  0| 0                  0                  0|]
New Line.03551201_03551202 Phases=3 bus1=03551201.1.2.3 bus2=03551202.1.2.3 Units=km Length=0.062728 Rmatrix=[ 1.1475            0.13703            0.13703| 0.13703             1.1475            0.13703| 0.13703            0.13703             1.1475|] Xmatrix=[0.87981            0.35619            0.35619| 0.35619            0.87981            0.35619| 0.35619            0.35619            0.87981|] Cmatrix=[0                  0                  0| 0                  0                  0| 0                  0                  0|]
New Line.035513_03551306 Phases=3 bus1=035513.1.2.3 bus2=03551306.1.2.3 Units=km Length=0.06855 Rmatrix=[1.0822              0.139              0.139|  0.139             1.0822              0.139|  0.139              0.139             1.0822|] Xmatrix=[0.83869            0.34853            0.34853| 0.34853            0.83869            0.34853| 0.34853            0.34853            0.83869|] Cmatrix=[0                  0                  0| 0                  0                  0| 0                  0                  0|]
New Line.035513_035514 Phases=3 bus1=035513.1.2.3 bus2=035514.1.2.3 Units=km Length=0.12207 Rmatrix=[  0.2161           0.056321           0.056321| 0.056321             0.2161           0.056321| 0.056321           0.056321             0.2161|] Xmatrix=[ 0.6425            0.24322            0.24322| 0.24322             0.6425            0.24322| 0.24322            0.24322             0.6425|] Cmatrix=[0                  0                  0| 0                  0                  0| 0                  0                  0|]
New Line.035513_035513a Phases=2 bus1=035513.1.3 bus2=035513a.1.3 Units=km Length=0.003048 Rmatrix=[0.12456            0.03762| 0.03762            0.12456|] Xmatrix=[ 0.6121            0.23447| 0.23447             0.6121|] Cmatrix=[0                  0| 0                  0|]
New Line.035513_03551394 Phases=2 bus1=035513.2.3 bus2=03551394.2.3 Units=km Length=0.090983 Rmatrix=[ 1.6358            0.13845| 0.13845             1.6358|] Xmatrix=[0.90256            0.39469| 0.39469            0.90256|] Cmatrix=[0                  0| 0                  0|]
New Line.03551306_03551392 Phases=2 bus1=03551306.1.3 bus2=03551392.1.3 Units=km Length=0.047214 Rmatrix=[ 1.6358            0.13845| 0.13845             1.6358|] Xmatrix=[0.90256            0.39469| 0.39469            0.90256|] Cmatrix=[0                  0| 0                  0|]
New Line.03551306_03551306a Phases=3 bus1=03551306.1.2.3 bus2=03551306a.1.2.3 Units=km Length=0.003048 Rmatrix=[0.12456            0.03762            0.03762| 0.03762            0.12456            0.03762| 0.03762            0.03762            0.12456|] Xmatrix=[ 0.6121            0.23447            0.23447| 0.23447             0.6121            0.23447| 0.23447            0.23447             0.6121|] Cmatrix=[0                  0                  0| 0                  0                  0| 0                  0                  0|]
New Line.03551394_03551394a Phases=2 bus1=03551394.2.3 bus2=03551394a.2.3 Units=km Length=0.003048 Rmatrix=[0.12456            0.03762| 0.03762            0.12456|] Xmatrix=[ 0.6121            0.23447| 0.23447             0.6121|] Cmatrix=[0                  0| 0                  0|]
New Line.035514_035515 Phases=3 bus1=035514.1.2.3 bus2=035515.1.2.3 Units=km Length=0.11902 Rmatrix=[  0.2161           0.056321           0.056321| 0.056321             0.2161           0.056321| 0.056321           0.056321             0.2161|] Xmatrix=[ 0.6425            0.24322            0.24322| 0.24322             0.6425            0.24322| 0.24322            0.24322             0.6425|] Cmatrix=[0                  0                  0| 0                  0                  0| 0                  0                  0|]
New Line.03551301_03551305 Phases=2 bus1=03551301.1.3 bus2=03551305.1.3 Units=km Length=0.10449 Rmatrix=[ 1.6358            0.13845| 0.13845             1.6358|] Xmatrix=[0.90256            0.39469| 0.39469            0.90256|] Cmatrix=[0                  0| 0                  0|]
New Line.03551301_03551301a Phases=2 bus1=03551301.1.3 bus2=03551301a.1.3 Units=km Length=0.003048 Rmatrix=[0.12456            0.03762| 0.03762            0.12456|] Xmatrix=[ 0.6121            0.23447| 0.23447             0.6121|] Cmatrix=[0                  0| 0                  0|]
New Line.03551301a_03551302 Phases=2 bus1=03551301a.1.3 bus2=03551302.1.3 Units=km Length=0.1018 Rmatrix=[0.71544            0.12194| 0.12194            0.71544|] Xmatrix=[  0.778            0.30523| 0.30523              0.778|] Cmatrix=[0                  0| 0                  0|]
New Line.03551302_03551303 Phases=2 bus1=03551302.1.3 bus2=03551303.1.3 Units=km Length=0.045415 Rmatrix=[0.71544            0.12194| 0.12194            0.71544|] Xmatrix=[  0.778            0.30523| 0.30523              0.778|] Cmatrix=[0                  0| 0                  0|]
New Line.03551302_03551304 Phases=2 bus1=03551302.1.3 bus2=03551304.1.3 Units=km Length=0.059741 Rmatrix=[0.71544            0.12194| 0.12194            0.71544|] Xmatrix=[  0.778            0.30523| 0.30523              0.778|] Cmatrix=[0                  0| 0                  0|]
New Line.03551392_03551393 Phases=2 bus1=03551392.1.3 bus2=03551393.1.3 Units=km Length=0.044714 Rmatrix=[ 1.6358            0.13845| 0.13845             1.6358|] Xmatrix=[0.90256            0.39469| 0.39469            0.90256|] Cmatrix=[0                  0| 0                  0|]
New Line.03551306a_03551307 Phases=3 bus1=03551306a.1.2.3 bus2=03551307.1.2.3 Units=km Length=0.11403 Rmatrix=[1.0822              0.139              0.139|  0.139             1.0822              0.139|  0.139              0.139             1.0822|] Xmatrix=[0.83869            0.34853            0.34853| 0.34853            0.83869            0.34853| 0.34853            0.34853            0.83869|] Cmatrix=[0                  0                  0| 0                  0                  0| 0                  0                  0|]
New Line.03551307_03551308 Phases=3 bus1=03551307.1.2.3 bus2=03551308.1.2.3 Units=km Length=0.081686 Rmatrix=[1.0822              0.139              0.139|  0.139             1.0822              0.139|  0.139              0.139             1.0822|] Xmatrix=[0.83869            0.34853            0.34853| 0.34853            0.83869            0.34853| 0.34853            0.34853            0.83869|] Cmatrix=[0                  0                  0| 0                  0                  0| 0                  0                  0|]
New Line.03551308_03551314 Phases=3 bus1=03551308.1.2.3 bus2=03551314.1.2.3 Units=km Length=0.13061 Rmatrix=[1.0822              0.139              0.139|  0.139             1.0822              0.139|  0.139              0.139             1.0822|] Xmatrix=[0.83869            0.34853            0.34853| 0.34853            0.83869            0.34853| 0.34853            0.34853            0.83869|] Cmatrix=[0                  0                  0| 0                  0                  0| 0                  0                  0|]
New Line.03551308_03551308a Phases=2 bus1=03551308.1.3 bus2=03551308a.1.3 Units=km Length=0.003048 Rmatrix=[0.12456            0.03762| 0.03762            0.12456|] Xmatrix=[ 0.6121            0.23447| 0.23447             0.6121|] Cmatrix=[0                  0| 0                  0|]
New Line.03551314_03551315 Phases=3 bus1=03551314.1.2.3 bus2=03551315.1.2.3 Units=km Length=0.096561 Rmatrix=[1.0822              0.139              0.139|  0.139             1.0822              0.139|  0.139              0.139             1.0822|] Xmatrix=[0.83869            0.34853            0.34853| 0.34853            0.83869            0.34853| 0.34853            0.34853            0.83869|] Cmatrix=[0                  0                  0| 0                  0                  0| 0                  0                  0|]
New Line.03551314_03551367 Phases=2 bus1=03551314.2.3 bus2=03551367.2.3 Units=km Length=0.05968 Rmatrix=[ 1.6358            0.13845| 0.13845             1.6358|] Xmatrix=[0.90256            0.39469| 0.39469            0.90256|] Cmatrix=[0                  0| 0                  0|]
New Line.03551308a_03551309 Phases=2 bus1=03551308a.1.3 bus2=03551309.1.3 Units=km Length=0.050993 Rmatrix=[1.0822              0.139|  0.139             1.0822|] Xmatrix=[0.83869            0.34853| 0.34853            0.83869|] Cmatrix=[0                  0| 0                  0|]
New Line.03551308a_03551313 Phases=2 bus1=03551308a.1.3 bus2=03551313.1.3 Units=km Length=0.054498 Rmatrix=[ 1.1475            0.13703| 0.13703             1.1475|] Xmatrix=[0.87981            0.35619| 0.35619            0.87981|] Cmatrix=[0                  0| 0                  0|]
New Line.03551309_03551310 Phases=2 bus1=03551309.1.3 bus2=03551310.1.3 Units=km Length=0.049621 Rmatrix=[ 1.1475            0.13703| 0.13703             1.1475|] Xmatrix=[0.87981            0.35619| 0.35619            0.87981|] Cmatrix=[0                  0| 0                  0|]
New Line.03551310_03551311 Phases=2 bus1=03551310.1.3 bus2=03551311.1.3 Units=km Length=0.051481 Rmatrix=[ 1.1475            0.13703| 0.13703             1.1475|] Xmatrix=[0.87981            0.35619| 0.35619            0.87981|] Cmatrix=[0                  0| 0                  0|]
New Line.03551311_03551312 Phases=2 bus1=03551311.1.3 bus2=03551312.1.3 Units=km Length=0.095098 Rmatrix=[ 1.1475            0.13703| 0.13703             1.1475|] Xmatrix=[0.87981            0.35619| 0.35619            0.87981|] Cmatrix=[0                  0| 0                  0|]
New Line.03551315_03551316 Phases=3 bus1=03551315.1.2.3 bus2=03551316.1.2.3 Units=km Length=0.13637 Rmatrix=[1.0822              0.139              0.139|  0.139             1.0822              0.139|  0.139              0.139             1.0822|] Xmatrix=[0.83869            0.34853            0.34853| 0.34853            0.83869            0.34853| 0.34853            0.34853            0.83869|] Cmatrix=[0                  0                  0| 0                  0                  0| 0                  0                  0|]
New Line.03551367_03551367a Phases=2 bus1=03551367.2.3 bus2=03551367a.2.3 Units=km Length=0.003048 Rmatrix=[0.12456            0.03762| 0.03762            0.12456|] Xmatrix=[ 0.6121            0.23447| 0.23447             0.6121|] Cmatrix=[0                  0| 0                  0|]
New Line.03551316_03551317 Phases=3 bus1=03551316.1.2.3 bus2=03551317.1.2.3 Units=km Length=0.064313 Rmatrix=[1.0822              0.139              0.139|  0.139             1.0822              0.139|  0.139              0.139             1.0822|] Xmatrix=[0.83869            0.34853            0.34853| 0.34853            0.83869            0.34853| 0.34853            0.34853            0.83869|] Cmatrix=[0                  0                  0| 0                  0                  0| 0                  0                  0|]
New Line.03551317_03551318 Phases=3 bus1=03551317.1.2.3 bus2=03551318.1.2.3 Units=km Length=0.10333 Rmatrix=[ 0.44084           0.091098           0.091098| 0.091098            0.44084           0.091098| 0.091098           0.091098            0.44084|] Xmatrix=[0.73502             0.2734             0.2734|  0.2734            0.73502             0.2734|  0.2734             0.2734            0.73502|] Cmatrix=[0                  0                  0| 0                  0                  0| 0                  0                  0|]
New Line.03551318_03551319 Phases=3 bus1=03551318.1.2.3 bus2=03551319.1.2.3 Units=km Length=0.062179 Rmatrix=[1.0822              0.139              0.139|  0.139             1.0822              0.139|  0.139              0.139             1.0822|] Xmatrix=[0.83869            0.34853            0.34853| 0.34853            0.83869            0.34853| 0.34853            0.34853            0.83869|] Cmatrix=[0                  0                  0| 0                  0                  0| 0                  0                  0|]
New Line.03551318_03551365 Phases=2 bus1=03551318.1.3 bus2=03551365.1.3 Units=km Length=0.060046 Rmatrix=[1.0822              0.139|  0.139             1.0822|] Xmatrix=[0.83869            0.34853| 0.34853            0.83869|] Cmatrix=[0                  0| 0                  0|]
New Line.03551319_03551320 Phases=3 bus1=03551319.1.2.3 bus2=03551320.1.2.3 Units=km Length=0.072664 Rmatrix=[1.0822              0.139              0.139|  0.139             1.0822              0.139|  0.139              0.139             1.0822|] Xmatrix=[0.83869            0.34853            0.34853| 0.34853            0.83869            0.34853| 0.34853            0.34853            0.83869|] Cmatrix=[0                  0                  0| 0                  0                  0| 0                  0                  0|]
New Line.03551365_03551366 Phases=2 bus1=03551365.1.3 bus2=03551366.1.3 Units=km Length=0.003048 Rmatrix=[1.0822              0.139|  0.139             1.0822|] Xmatrix=[0.83869            0.34853| 0.34853            0.83869|] Cmatrix=[0                  0| 0                  0|]
New Line.03551320_03551321 Phases=3 bus1=03551320.1.2.3 bus2=03551321.1.2.3 Units=km Length=0.067696 Rmatrix=[1.0822              0.139              0.139|  0.139             1.0822              0.139|  0.139              0.139             1.0822|] Xmatrix=[0.83869            0.34853            0.34853| 0.34853            0.83869            0.34853| 0.34853            0.34853            0.83869|] Cmatrix=[0                  0                  0| 0                  0                  0| 0                  0                  0|]
New Line.03551321_03551322 Phases=3 bus1=03551321.1.2.3 bus2=03551322.1.2.3 Units=km Length=0.076871 Rmatrix=[1.0822              0.139              0.139|  0.139             1.0822              0.139|  0.139              0.139             1.0822|] Xmatrix=[0.83869            0.34853            0.34853| 0.34853            0.83869            0.34853| 0.34853            0.34853            0.83869|] Cmatrix=[0                  0                  0| 0                  0                  0| 0                  0                  0|]
New Line.03551322_03551323 Phases=3 bus1=03551322.1.2.3 bus2=03551323.1.2.3 Units=km Length=0.06602 Rmatrix=[1.0822              0.139              0.139|  0.139             1.0822              0.139|  0.139              0.139             1.0822|] Xmatrix=[0.83869            0.34853            0.34853| 0.34853            0.83869            0.34853| 0.34853            0.34853            0.83869|] Cmatrix=[0                  0                  0| 0                  0                  0| 0                  0                  0|]
New Line.03551323_03551324 Phases=3 bus1=03551323.1.2.3 bus2=03551324.1.2.3 Units=km Length=0.048097 Rmatrix=[1.0822              0.139              0.139|  0.139             1.0822              0.139|  0.139              0.139             1.0822|] Xmatrix=[0.83869            0.34853            0.34853| 0.34853            0.83869            0.34853| 0.34853            0.34853            0.83869|] Cmatrix=[0                  0                  0| 0                  0                  0| 0                  0                  0|]
New Line.03551323_03551326 Phases=2 bus1=03551323.1.2 bus2=03551326.1.2 Units=km Length=0.064313 Rmatrix=[ 1.6358            0.13845| 0.13845             1.6358|] Xmatrix=[0.90256            0.39469| 0.39469            0.90256|] Cmatrix=[0                  0| 0                  0|]
New Line.03551323_03551348 Phases=2 bus1=03551323.2.3 bus2=03551348.2.3 Units=km Length=0.035448 Rmatrix=[ 1.6358            0.13845| 0.13845             1.6358|] Xmatrix=[0.90256            0.39469| 0.39469            0.90256|] Cmatrix=[0                  0| 0                  0|]
New Line.03551324_03551325 Phases=3 bus1=03551324.1.2.3 bus2=03551325.1.2.3 Units=km Length=0.22424 Rmatrix=[1.0822              0.139              0.139|  0.139             1.0822              0.139|  0.139              0.139             1.0822|] Xmatrix=[0.83869            0.34853            0.34853| 0.34853            0.83869            0.34853| 0.34853            0.34853            0.83869|] Cmatrix=[0                  0                  0| 0                  0                  0| 0                  0                  0|]
New Line.03551326_03551327 Phases=2 bus1=03551326.1.2 bus2=03551327.1.2 Units=km Length=0.052273 Rmatrix=[1.0822              0.139|  0.139             1.0822|] Xmatrix=[0.83869            0.34853| 0.34853            0.83869|] Cmatrix=[0                  0| 0                  0|]
New Line.03551348_03551349 Phases=2 bus1=03551348.2.3 bus2=03551349.2.3 Units=km Length=0.062179 Rmatrix=[ 1.6358            0.13845| 0.13845             1.6358|] Xmatrix=[0.90256            0.39469| 0.39469            0.90256|] Cmatrix=[0                  0| 0                  0|]
New Line.03551327_03551333 Phases=2 bus1=03551327.1.2 bus2=03551333.1.2 Units=km Length=0.075621 Rmatrix=[1.0822              0.139|  0.139             1.0822|] Xmatrix=[0.83869            0.34853| 0.34853            0.83869|] Cmatrix=[0                  0| 0                  0|]
New Line.03551327_03551328 Phases=1 bus1=03551327.1 bus2=03551328.1 Units=km Length=0.003048 Rmatrix=0.086942 Xmatrix=0.37762 Cmatrix=0
New Line.03551333_03551334 Phases=2 bus1=03551333.1.2 bus2=03551334.1.2 Units=km Length=0.012497 Rmatrix=[1.0822              0.139|  0.139             1.0822|] Xmatrix=[0.83869            0.34853| 0.34853            0.83869|] Cmatrix=[0                  0| 0                  0|]
New Line.03551333_03551335 Phases=2 bus1=03551333.1.2 bus2=03551335.1.2 Units=km Length=0.04511 Rmatrix=[ 1.1475            0.13703| 0.13703             1.1475|] Xmatrix=[0.87981            0.35619| 0.35619            0.87981|] Cmatrix=[0                  0| 0                  0|]
New Line.03551333_03551346 Phases=2 bus1=03551333.1.2 bus2=03551346.1.2 Units=km Length=0.031791 Rmatrix=[ 1.1475            0.13703| 0.13703             1.1475|] Xmatrix=[0.87981            0.35619| 0.35619            0.87981|] Cmatrix=[0                  0| 0                  0|]
New Line.03551328a_03551329 Phases=1 bus1=03551328a.1 bus2=03551329.1 Units=km Length=0.029261 Rmatrix=0.5935 Xmatrix=0.47277 Cmatrix=0
New Line.03551329_03551330 Phases=1 bus1=03551329.1 bus2=03551330.1 Units=km Length=0.087478 Rmatrix=0.5935 Xmatrix=0.47277 Cmatrix=0
New Line.03551330_03551331 Phases=1 bus1=03551330.1 bus2=03551331.1 Units=km Length=0.10759 Rmatrix=0.5935 Xmatrix=0.47277 Cmatrix=0
New Line.03551331_03551332 Phases=1 bus1=03551331.1 bus2=03551332.1 Units=km Length=0.003048 Rmatrix=0.5935 Xmatrix=0.47277 Cmatrix=0
New Line.03551335_03551336 Phases=2 bus1=03551335.1.2 bus2=03551336.1.2 Units=km Length=0.038344 Rmatrix=[ 1.1475            0.13703| 0.13703             1.1475|] Xmatrix=[0.87981            0.35619| 0.35619            0.87981|] Cmatrix=[0                  0| 0                  0|]
New Line.03551335_03551345 Phases=2 bus1=03551335.1.2 bus2=03551345.1.2 Units=km Length=0.028651 Rmatrix=[ 1.1475            0.13703| 0.13703             1.1475|] Xmatrix=[0.87981            0.35619| 0.35619            0.87981|] Cmatrix=[0                  0| 0                  0|]
New Line.03551346_03551347 Phases=2 bus1=03551346.1.2 bus2=03551347.1.2 Units=km Length=0.058522 Rmatrix=[ 1.1475            0.13703| 0.13703             1.1475|] Xmatrix=[0.87981            0.35619| 0.35619            0.87981|] Cmatrix=[0                  0| 0                  0|]
New Line.03551336_03551337 Phases=2 bus1=03551336.1.2 bus2=03551337.1.2 Units=km Length=0.012984 Rmatrix=[ 1.1475            0.13703| 0.13703             1.1475|] Xmatrix=[0.87981            0.35619| 0.35619            0.87981|] Cmatrix=[0                  0| 0                  0|]
New Line.03551336_03551339 Phases=2 bus1=03551336.1.2 bus2=03551339.1.2 Units=km Length=0.08766 Rmatrix=[ 1.1475            0.13703| 0.13703             1.1475|] Xmatrix=[0.87981            0.35619| 0.35619            0.87981|] Cmatrix=[0                  0| 0                  0|]
New Line.03551336_03551342 Phases=2 bus1=03551336.1.2 bus2=03551342.1.2 Units=km Length=0.028956 Rmatrix=[ 1.1475            0.13703| 0.13703             1.1475|] Xmatrix=[0.87981            0.35619| 0.35619            0.87981|] Cmatrix=[0                  0| 0                  0|]
New Line.03551337_03551337a Phases=2 bus1=03551337.1.2 bus2=03551337a.1.2 Units=km Length=0.003048 Rmatrix=[0.12456            0.03762| 0.03762            0.12456|] Xmatrix=[ 0.6121            0.23447| 0.23447             0.6121|] Cmatrix=[0                  0| 0                  0|]
New Line.03551339_03551340 Phases=2 bus1=03551339.1.2 bus2=03551340.1.2 Units=km Length=0.051176 Rmatrix=[ 1.1475            0.13703| 0.13703             1.1475|] Xmatrix=[0.87981            0.35619| 0.35619            0.87981|] Cmatrix=[0                  0| 0                  0|]
New Line.03551342_03551343 Phases=2 bus1=03551342.1.2 bus2=03551343.1.2 Units=km Length=0.10074 Rmatrix=[ 1.1475            0.13703| 0.13703             1.1475|] Xmatrix=[0.87981            0.35619| 0.35619            0.87981|] Cmatrix=[0                  0| 0                  0|]
New Line.03551337a_03551338 Phases=2 bus1=03551337a.1.2 bus2=03551338.1.2 Units=km Length=0.094488 Rmatrix=[0.71544            0.12194| 0.12194            0.71544|] Xmatrix=[  0.778            0.30523| 0.30523              0.778|] Cmatrix=[0                  0| 0                  0|]
New Line.03551340_03551341 Phases=2 bus1=03551340.1.2 bus2=03551341.1.2 Units=km Length=0.058247 Rmatrix=[ 1.1475            0.13703| 0.13703             1.1475|] Xmatrix=[0.87981            0.35619| 0.35619            0.87981|] Cmatrix=[0                  0| 0                  0|]
New Line.03551343_03551344 Phases=2 bus1=03551343.1.2 bus2=03551344.1.2 Units=km Length=0.003048 Rmatrix=[ 1.1475            0.13703| 0.13703             1.1475|] Xmatrix=[0.87981            0.35619| 0.35619            0.87981|] Cmatrix=[0                  0| 0                  0|]
New Line.03551349_03551350 Phases=2 bus1=03551349.2.3 bus2=03551350.2.3 Units=km Length=0.07748 Rmatrix=[ 1.6358            0.13845| 0.13845             1.6358|] Xmatrix=[0.90256            0.39469| 0.39469            0.90256|] Cmatrix=[0                  0| 0                  0|]
New Line.03551350_03551356 Phases=2 bus1=03551350.2.3 bus2=03551356.2.3 Units=km Length=0.067635 Rmatrix=[ 1.6358            0.13845| 0.13845             1.6358|] Xmatrix=[0.90256            0.39469| 0.39469            0.90256|] Cmatrix=[0                  0| 0                  0|]
New Line.03551350_03551350a Phases=2 bus1=03551350.2.3 bus2=03551350a.2.3 Units=km Length=0.003048 Rmatrix=[0.12456            0.03762| 0.03762            0.12456|] Xmatrix=[ 0.6121            0.23447| 0.23447             0.6121|] Cmatrix=[0                  0| 0                  0|]
New Line.03551356_03551357 Phases=2 bus1=03551356.2.3 bus2=03551357.2.3 Units=km Length=0.034412 Rmatrix=[ 1.6358            0.13845| 0.13845             1.6358|] Xmatrix=[0.90256            0.39469| 0.39469            0.90256|] Cmatrix=[0                  0| 0                  0|]
New Line.03551350a_03551351 Phases=2 bus1=03551350a.2.3 bus2=03551351.2.3 Units=km Length=0.062484 Rmatrix=[0.71544            0.12194| 0.12194            0.71544|] Xmatrix=[  0.778            0.30523| 0.30523              0.778|] Cmatrix=[0                  0| 0                  0|]
New Line.03551351_03551352 Phases=2 bus1=03551351.2.3 bus2=03551352.2.3 Units=km Length=0.089611 Rmatrix=[0.71544            0.12194| 0.12194            0.71544|] Xmatrix=[  0.778            0.30523| 0.30523              0.778|] Cmatrix=[0                  0| 0                  0|]
New Line.03551352_03551353 Phases=2 bus1=03551352.2.3 bus2=03551353.2.3 Units=km Length=0.085649 Rmatrix=[0.71544            0.12194| 0.12194            0.71544|] Xmatrix=[  0.778            0.30523| 0.30523              0.778|] Cmatrix=[0                  0| 0                  0|]
New Line.03551353_03551354 Phases=2 bus1=03551353.2.3 bus2=03551354.2.3 Units=km Length=0.050597 Rmatrix=[0.71544            0.12194| 0.12194            0.71544|] Xmatrix=[  0.778            0.30523| 0.30523              0.778|] Cmatrix=[0                  0| 0                  0|]
New Line.03551354_03551355 Phases=2 bus1=03551354.2.3 bus2=03551355.2.3 Units=km Length=0.003048 Rmatrix=[0.71544            0.12194| 0.12194            0.71544|] Xmatrix=[  0.778            0.30523| 0.30523              0.778|] Cmatrix=[0                  0| 0                  0|]
New Line.03551357_03551358 Phases=2 bus1=03551357.2.3 bus2=03551358.2.3 Units=km Length=0.053249 Rmatrix=[ 1.6358            0.13845| 0.13845             1.6358|] Xmatrix=[0.90256            0.39469| 0.39469            0.90256|] Cmatrix=[0                  0| 0                  0|]
New Line.03551358_03551359 Phases=2 bus1=03551358.2.3 bus2=03551359.2.3 Units=km Length=0.030815 Rmatrix=[ 1.6358            0.13845| 0.13845             1.6358|] Xmatrix=[0.90256            0.39469| 0.39469            0.90256|] Cmatrix=[0                  0| 0                  0|]
New Line.03551359_03551360 Phases=2 bus1=03551359.2.3 bus2=03551360.2.3 Units=km Length=0.10897 Rmatrix=[ 1.6358            0.13845| 0.13845             1.6358|] Xmatrix=[0.90256            0.39469| 0.39469            0.90256|] Cmatrix=[0                  0| 0                  0|]
New Line.03551359_03551361 Phases=2 bus1=03551359.2.3 bus2=03551361.2.3 Units=km Length=0.040965 Rmatrix=[ 1.6358            0.13845| 0.13845             1.6358|] Xmatrix=[0.90256            0.39469| 0.39469            0.90256|] Cmatrix=[0                  0| 0                  0|]
New Line.03551361_03551362 Phases=2 bus1=03551361.2.3 bus2=03551362.2.3 Units=km Length=0.070957 Rmatrix=[ 1.1475            0.13703| 0.13703             1.1475|] Xmatrix=[0.87981            0.35619| 0.35619            0.87981|] Cmatrix=[0                  0| 0                  0|]
New Line.03551361_03551364 Phases=2 bus1=03551361.2.3 bus2=03551364.2.3 Units=km Length=0.088301 Rmatrix=[ 1.6358            0.13845| 0.13845             1.6358|] Xmatrix=[0.90256            0.39469| 0.39469            0.90256|] Cmatrix=[0                  0| 0                  0|]
New Line.03551362_03551363 Phases=2 bus1=03551362.2.3 bus2=03551363.2.3 Units=km Length=0.048768 Rmatrix=[ 1.1475            0.13703| 0.13703             1.1475|] Xmatrix=[0.87981            0.35619| 0.35619            0.87981|] Cmatrix=[0                  0| 0                  0|]
New Line.03551367a_03551368 Phases=2 bus1=03551367a.2.3 bus2=03551368.2.3 Units=km Length=0.059375 Rmatrix=[ 1.6358            0.13845| 0.13845             1.6358|] Xmatrix=[0.90256            0.39469| 0.39469            0.90256|] Cmatrix=[0                  0| 0                  0|]
New Line.03551368_03551369 Phases=2 bus1=03551368.2.3 bus2=03551369.2.3 Units=km Length=0.16179 Rmatrix=[ 1.6358            0.13845| 0.13845             1.6358|] Xmatrix=[0.90256            0.39469| 0.39469            0.90256|] Cmatrix=[0                  0| 0                  0|]
New Line.03551369_03551370 Phases=2 bus1=03551369.2.3 bus2=03551370.2.3 Units=km Length=0.092172 Rmatrix=[ 1.6358            0.13845| 0.13845             1.6358|] Xmatrix=[0.90256            0.39469| 0.39469            0.90256|] Cmatrix=[0                  0| 0                  0|]
New Line.03551370_03551371 Phases=2 bus1=03551370.2.3 bus2=03551371.2.3 Units=km Length=0.05395 Rmatrix=[ 1.1475            0.13703| 0.13703             1.1475|] Xmatrix=[0.87981            0.35619| 0.35619            0.87981|] Cmatrix=[0                  0| 0                  0|]
New Line.03551370_03551390 Phases=2 bus1=03551370.2.3 bus2=03551390.2.3 Units=km Length=0.080863 Rmatrix=[ 1.1475            0.13703| 0.13703             1.1475|] Xmatrix=[0.87981            0.35619| 0.35619            0.87981|] Cmatrix=[0                  0| 0                  0|]
New Line.03551370_03551391 Phases=2 bus1=03551370.2.3 bus2=03551391.2.3 Units=km Length=0.025634 Rmatrix=[ 1.1475            0.13703| 0.13703             1.1475|] Xmatrix=[0.87981            0.35619| 0.35619            0.87981|] Cmatrix=[0                  0| 0                  0|]
New Line.03551371_03551372 Phases=2 bus1=03551371.2.3 bus2=03551372.2.3 Units=km Length=0.032217 Rmatrix=[ 1.1475            0.13703| 0.13703             1.1475|] Xmatrix=[0.87981            0.35619| 0.35619            0.87981|] Cmatrix=[0                  0| 0                  0|]
New Line.03551371_03551389 Phases=2 bus1=03551371.2.3 bus2=03551389.2.3 Units=km Length=0.070378 Rmatrix=[ 1.1475            0.13703| 0.13703             1.1475|] Xmatrix=[0.87981            0.35619| 0.35619            0.87981|] Cmatrix=[0                  0| 0                  0|]
New Line.03551372_03551373 Phases=2 bus1=03551372.2.3 bus2=03551373.2.3 Units=km Length=0.082692 Rmatrix=[ 1.1475            0.13703| 0.13703             1.1475|] Xmatrix=[0.87981            0.35619| 0.35619            0.87981|] Cmatrix=[0                  0| 0                  0|]
New Line.03551372_03551387 Phases=2 bus1=03551372.2.3 bus2=03551387.2.3 Units=km Length=0.077572 Rmatrix=[ 1.1475            0.13703| 0.13703             1.1475|] Xmatrix=[0.87981            0.35619| 0.35619            0.87981|] Cmatrix=[0                  0| 0                  0|]
New Line.03551372_03551388 Phases=2 bus1=03551372.2.3 bus2=03551388.2.3 Units=km Length=0.013533 Rmatrix=[ 1.1475            0.13703| 0.13703             1.1475|] Xmatrix=[0.87981            0.35619| 0.35619            0.87981|] Cmatrix=[0                  0| 0                  0|]
New Line.03551373_03551374 Phases=2 bus1=03551373.2.3 bus2=03551374.2.3 Units=km Length=0.046665 Rmatrix=[ 1.1475            0.13703| 0.13703             1.1475|] Xmatrix=[0.87981            0.35619| 0.35619            0.87981|] Cmatrix=[0                  0| 0                  0|]
New Line.03551374_03551375 Phases=2 bus1=03551374.2.3 bus2=03551375.2.3 Units=km Length=0.012253 Rmatrix=[ 1.1475            0.13703| 0.13703             1.1475|] Xmatrix=[0.87981            0.35619| 0.35619            0.87981|] Cmatrix=[0                  0| 0                  0|]
New Line.03551374_03551378 Phases=2 bus1=03551374.2.3 bus2=03551378.2.3 Units=km Length=0.049225 Rmatrix=[ 1.1475            0.13703| 0.13703             1.1475|] Xmatrix=[0.87981            0.35619| 0.35619            0.87981|] Cmatrix=[0                  0| 0                  0|]
New Line.03551375_03551376 Phases=2 bus1=03551375.2.3 bus2=03551376.2.3 Units=km Length=0.003048 Rmatrix=[ 1.1475            0.13703| 0.13703             1.1475|] Xmatrix=[0.87981            0.35619| 0.35619            0.87981|] Cmatrix=[0                  0| 0                  0|]
New Line.03551375_03551377 Phases=2 bus1=03551375.2.3 bus2=03551377.2.3 Units=km Length=0.066751 Rmatrix=[ 1.1475            0.13703| 0.13703             1.1475|] Xmatrix=[0.87981            0.35619| 0.35619            0.87981|] Cmatrix=[0                  0| 0                  0|]
New Line.03551378_03551379 Phases=2 bus1=03551378.2.3 bus2=03551379.2.3 Units=km Length=0.055199 Rmatrix=[ 1.1475            0.13703| 0.13703             1.1475|] Xmatrix=[0.87981            0.35619| 0.35619            0.87981|] Cmatrix=[0                  0| 0                  0|]
New Line.03551379_03551380 Phases=2 bus1=03551379.2.3 bus2=03551380.2.3 Units=km Length=0.045933 Rmatrix=[ 1.1475            0.13703| 0.13703             1.1475|] Xmatrix=[0.87981            0.35619| 0.35619            0.87981|] Cmatrix=[0                  0| 0                  0|]
New Line.03551379_03551385 Phases=2 bus1=03551379.2.3 bus2=03551385.2.3 Units=km Length=0.013381 Rmatrix=[ 1.1475            0.13703| 0.13703             1.1475|] Xmatrix=[0.87981            0.35619| 0.35619            0.87981|] Cmatrix=[0                  0| 0                  0|]
New Line.03551380_03551381 Phases=2 bus1=03551380.2.3 bus2=03551381.2.3 Units=km Length=0.026091 Rmatrix=[ 1.1475            0.13703| 0.13703             1.1475|] Xmatrix=[0.87981            0.35619| 0.35619            0.87981|] Cmatrix=[0                  0| 0                  0|]
New Line.03551385_03551385a Phases=2 bus1=03551385.2.3 bus2=03551385a.2.3 Units=km Length=0.003048 Rmatrix=[0.12456            0.03762| 0.03762            0.12456|] Xmatrix=[ 0.6121            0.23447| 0.23447             0.6121|] Cmatrix=[0                  0| 0                  0|]
New Line.03551381_03551382 Phases=2 bus1=03551381.2.3 bus2=03551382.2.3 Units=km Length=0.032339 Rmatrix=[ 1.1475            0.13703| 0.13703             1.1475|] Xmatrix=[0.87981            0.35619| 0.35619            0.87981|] Cmatrix=[0                  0| 0                  0|]
New Line.03551382_03551383 Phases=2 bus1=03551382.2.3 bus2=03551383.2.3 Units=km Length=0.05523 Rmatrix=[ 1.1475            0.13703| 0.13703             1.1475|] Xmatrix=[0.87981            0.35619| 0.35619            0.87981|] Cmatrix=[0                  0| 0                  0|]
New Line.03551383_03551383a Phases=2 bus1=03551383.2.3 bus2=03551383a.2.3 Units=km Length=0.003048 Rmatrix=[0.12456            0.03762| 0.03762            0.12456|] Xmatrix=[ 0.6121            0.23447| 0.23447             0.6121|] Cmatrix=[0                  0| 0                  0|]
New Line.03551383a_03551384 Phases=2 bus1=03551383a.2.3 bus2=03551384.2.3 Units=km Length=0.094793 Rmatrix=[0.71544            0.12194| 0.12194            0.71544|] Xmatrix=[  0.778            0.30523| 0.30523              0.778|] Cmatrix=[0                  0| 0                  0|]
New Line.03551385a_03551386 Phases=2 bus1=03551385a.2.3 bus2=03551386.2.3 Units=km Length=0.056083 Rmatrix=[0.64403            0.11385| 0.11385            0.64403|] Xmatrix=[0.78314            0.29823| 0.29823            0.78314|] Cmatrix=[0                  0| 0                  0|]
New Line.03551394a_03551395 Phases=2 bus1=03551394a.2.3 bus2=03551395.2.3 Units=km Length=0.059527 Rmatrix=[ 1.6358            0.13845| 0.13845             1.6358|] Xmatrix=[0.90256            0.39469| 0.39469            0.90256|] Cmatrix=[0                  0| 0                  0|]
New Line.035513a_03551301 Phases=2 bus1=035513a.1.3 bus2=03551301.1.3 Units=km Length=0.068336 Rmatrix=[ 1.6358            0.13845| 0.13845             1.6358|] Xmatrix=[0.90256            0.39469| 0.39469            0.90256|] Cmatrix=[0                  0| 0                  0|]
New Line.035515_035516 Phases=3 bus1=035515.1.2.3 bus2=035516.1.2.3 Units=km Length=0.086929 Rmatrix=[  0.2161           0.056321           0.056321| 0.056321             0.2161           0.056321| 0.056321           0.056321             0.2161|] Xmatrix=[ 0.6425            0.24322            0.24322| 0.24322             0.6425            0.24322| 0.24322            0.24322             0.6425|] Cmatrix=[0                  0                  0| 0                  0                  0| 0                  0                  0|]
New Line.035516_035517 Phases=3 bus1=035516.1.2.3 bus2=035517.1.2.3 Units=km Length=0.024689 Rmatrix=[  0.2161           0.056321           0.056321| 0.056321             0.2161           0.056321| 0.056321           0.056321             0.2161|] Xmatrix=[ 0.6425            0.24322            0.24322| 0.24322             0.6425            0.24322| 0.24322            0.24322             0.6425|] Cmatrix=[0                  0                  0| 0                  0                  0| 0                  0                  0|]
New Line.035516_035516a Phases=2 bus1=035516.2.3 bus2=035516a.2.3 Units=km Length=0.003048 Rmatrix=[0.12456            0.03762| 0.03762            0.12456|] Xmatrix=[ 0.6121            0.23447| 0.23447             0.6121|] Cmatrix=[0                  0| 0                  0|]
New Line.035517_035518 Phases=3 bus1=035517.1.2.3 bus2=035518.1.2.3 Units=km Length=0.083454 Rmatrix=[  0.2161           0.056321           0.056321| 0.056321             0.2161           0.056321| 0.056321           0.056321             0.2161|] Xmatrix=[ 0.6425            0.24322            0.24322| 0.24322             0.6425            0.24322| 0.24322            0.24322             0.6425|] Cmatrix=[0                  0                  0| 0                  0                  0| 0                  0                  0|]
New Line.035517_035517a Phases=2 bus1=035517.1.3 bus2=035517a.1.3 Units=km Length=0.003048 Rmatrix=[0.12456            0.03762| 0.03762            0.12456|] Xmatrix=[ 0.6121            0.23447| 0.23447             0.6121|] Cmatrix=[0                  0| 0                  0|]
New Line.03551601_03551602 Phases=2 bus1=03551601.2.3 bus2=03551602.2.3 Units=km Length=0.052791 Rmatrix=[1.0822              0.139|  0.139             1.0822|] Xmatrix=[0.83869            0.34853| 0.34853            0.83869|] Cmatrix=[0                  0| 0                  0|]
New Line.03551601_03551603 Phases=2 bus1=03551601.2.3 bus2=03551603.2.3 Units=km Length=0.014874 Rmatrix=[ 1.1475            0.13703| 0.13703             1.1475|] Xmatrix=[0.87981            0.35619| 0.35619            0.87981|] Cmatrix=[0                  0| 0                  0|]
New Line.03551603_03551604 Phases=2 bus1=03551603.2.3 bus2=03551604.2.3 Units=km Length=0.046756 Rmatrix=[ 1.1475            0.13703| 0.13703             1.1475|] Xmatrix=[0.87981            0.35619| 0.35619            0.87981|] Cmatrix=[0                  0| 0                  0|]
New Line.035516a_03551601 Phases=2 bus1=035516a.2.3 bus2=03551601.2.3 Units=km Length=0.011674 Rmatrix=[ 1.1475            0.13703| 0.13703             1.1475|] Xmatrix=[0.87981            0.35619| 0.35619            0.87981|] Cmatrix=[0                  0| 0                  0|]
New Line.035516a_03551605 Phases=2 bus1=035516a.2.3 bus2=03551605.2.3 Units=km Length=0.021123 Rmatrix=[ 1.1475            0.13703| 0.13703             1.1475|] Xmatrix=[0.87981            0.35619| 0.35619            0.87981|] Cmatrix=[0                  0| 0                  0|]
New Line.035518_03551801 Phases=2 bus1=035518.1.3 bus2=03551801.1.3 Units=km Length=0.042885 Rmatrix=[1.0822              0.139|  0.139             1.0822|] Xmatrix=[0.83869            0.34853| 0.34853            0.83869|] Cmatrix=[0                  0| 0                  0|]
New Line.035518_035519 Phases=3 bus1=035518.1.2.3 bus2=035519.1.2.3 Units=km Length=0.033284 Rmatrix=[  0.2161           0.056321           0.056321| 0.056321             0.2161           0.056321| 0.056321           0.056321             0.2161|] Xmatrix=[ 0.6425            0.24322            0.24322| 0.24322             0.6425            0.24322| 0.24322            0.24322             0.6425|] Cmatrix=[0                  0                  0| 0                  0                  0| 0                  0                  0|]
New Line.035518_03551802 Phases=2 bus1=035518.2.3 bus2=03551802.2.3 Units=km Length=0.10159 Rmatrix=[1.0822              0.139|  0.139             1.0822|] Xmatrix=[0.83869            0.34853| 0.34853            0.83869|] Cmatrix=[0                  0| 0                  0|]
New Line.03551701_03551702 Phases=2 bus1=03551701.1.3 bus2=03551702.1.3 Units=km Length=0.028834 Rmatrix=[1.0822              0.139|  0.139             1.0822|] Xmatrix=[0.83869            0.34853| 0.34853            0.83869|] Cmatrix=[0                  0| 0                  0|]
New Line.03551702_03551703 Phases=2 bus1=03551702.1.3 bus2=03551703.1.3 Units=km Length=0.0267 Rmatrix=[1.0822              0.139|  0.139             1.0822|] Xmatrix=[0.83869            0.34853| 0.34853            0.83869|] Cmatrix=[0                  0| 0                  0|]
New Line.03551703_03551704 Phases=2 bus1=03551703.1.3 bus2=03551704.1.3 Units=km Length=0.056175 Rmatrix=[ 1.1475            0.13703| 0.13703             1.1475|] Xmatrix=[0.87981            0.35619| 0.35619            0.87981|] Cmatrix=[0                  0| 0                  0|]
New Line.03551703_03551708 Phases=2 bus1=03551703.1.3 bus2=03551708.1.3 Units=km Length=0.11345 Rmatrix=[1.0822              0.139|  0.139             1.0822|] Xmatrix=[0.83869            0.34853| 0.34853            0.83869|] Cmatrix=[0                  0| 0                  0|]
New Line.03551704_03551705 Phases=2 bus1=03551704.1.3 bus2=03551705.1.3 Units=km Length=0.060015 Rmatrix=[ 1.1475            0.13703| 0.13703             1.1475|] Xmatrix=[0.87981            0.35619| 0.35619            0.87981|] Cmatrix=[0                  0| 0                  0|]
New Line.03551708_03551709 Phases=2 bus1=03551708.1.3 bus2=03551709.1.3 Units=km Length=0.044623 Rmatrix=[1.0822              0.139|  0.139             1.0822|] Xmatrix=[0.83869            0.34853| 0.34853            0.83869|] Cmatrix=[0                  0| 0                  0|]
New Line.03551708_03551715 Phases=2 bus1=03551708.1.3 bus2=03551715.1.3 Units=km Length=0.091166 Rmatrix=[1.0822              0.139|  0.139             1.0822|] Xmatrix=[0.83869            0.34853| 0.34853            0.83869|] Cmatrix=[0                  0| 0                  0|]
New Line.03551708_03551716 Phases=2 bus1=03551708.1.3 bus2=03551716.1.3 Units=km Length=0.052487 Rmatrix=[0.71544            0.12194| 0.12194            0.71544|] Xmatrix=[  0.778            0.30523| 0.30523              0.778|] Cmatrix=[0                  0| 0                  0|]
New Line.03551705_03551706 Phases=2 bus1=03551705.1.3 bus2=03551706.1.3 Units=km Length=0.044897 Rmatrix=[ 1.1475            0.13703| 0.13703             1.1475|] Xmatrix=[0.87981            0.35619| 0.35619            0.87981|] Cmatrix=[0                  0| 0                  0|]
New Line.03551706_03551707 Phases=2 bus1=03551706.1.3 bus2=03551707.1.3 Units=km Length=0.003048 Rmatrix=[ 1.1475            0.13703| 0.13703             1.1475|] Xmatrix=[0.87981            0.35619| 0.35619            0.87981|] Cmatrix=[0                  0| 0                  0|]
New Line.03551709_03551709a Phases=2 bus1=03551709.1.3 bus2=03551709a.1.3 Units=km Length=0.003048 Rmatrix=[0.12456            0.03762| 0.03762            0.12456|] Xmatrix=[ 0.6121            0.23447| 0.23447             0.6121|] Cmatrix=[0                  0| 0                  0|]
New Line.03551709a_03551710 Phases=2 bus1=03551709a.1.3 bus2=03551710.1.3 Units=km Length=0.12741 Rmatrix=[0.71544            0.12194| 0.12194            0.71544|] Xmatrix=[  0.778            0.30523| 0.30523              0.778|] Cmatrix=[0                  0| 0                  0|]
New Line.03551710_03551711 Phases=2 bus1=03551710.1.3 bus2=03551711.1.3 Units=km Length=0.069494 Rmatrix=[0.71544            0.12194| 0.12194            0.71544|] Xmatrix=[  0.778            0.30523| 0.30523              0.778|] Cmatrix=[0                  0| 0                  0|]
New Line.03551710_03551712 Phases=2 bus1=03551710.1.3 bus2=03551712.1.3 Units=km Length=0.16002 Rmatrix=[0.71544            0.12194| 0.12194            0.71544|] Xmatrix=[  0.778            0.30523| 0.30523              0.778|] Cmatrix=[0                  0| 0                  0|]
New Line.03551710_03551714 Phases=2 bus1=03551710.1.3 bus2=03551714.1.3 Units=km Length=0.15179 Rmatrix=[0.71544            0.12194| 0.12194            0.71544|] Xmatrix=[  0.778            0.30523| 0.30523              0.778|] Cmatrix=[0                  0| 0                  0|]
New Line.03551712_03551713 Phases=2 bus1=03551712.1.3 bus2=03551713.1.3 Units=km Length=0.10942 Rmatrix=[0.71544            0.12194| 0.12194            0.71544|] Xmatrix=[  0.778            0.30523| 0.30523              0.778|] Cmatrix=[0                  0| 0                  0|]
New Line.035517a_03551701 Phases=2 bus1=035517a.1.3 bus2=03551701.1.3 Units=km Length=0.071445 Rmatrix=[1.0822              0.139|  0.139             1.0822|] Xmatrix=[0.83869            0.34853| 0.34853            0.83869|] Cmatrix=[0                  0| 0                  0|]
New Line.03551802_03551803 Phases=2 bus1=03551802.2.3 bus2=03551803.2.3 Units=km Length=0.051603 Rmatrix=[1.0822              0.139|  0.139             1.0822|] Xmatrix=[0.83869            0.34853| 0.34853            0.83869|] Cmatrix=[0                  0| 0                  0|]
New Line.035519_035520 Phases=3 bus1=035519.1.2.3 bus2=035520.1.2.3 Units=km Length=0.08763 Rmatrix=[  0.2161           0.056321           0.056321| 0.056321             0.2161           0.056321| 0.056321           0.056321             0.2161|] Xmatrix=[ 0.6425            0.24322            0.24322| 0.24322             0.6425            0.24322| 0.24322            0.24322             0.6425|] Cmatrix=[0                  0                  0| 0                  0                  0| 0                  0                  0|]
New Line.035520_035521 Phases=3 bus1=035520.1.2.3 bus2=035521.1.2.3 Units=km Length=0.16505 Rmatrix=[  0.2161           0.056321           0.056321| 0.056321             0.2161           0.056321| 0.056321           0.056321             0.2161|] Xmatrix=[ 0.6425            0.24322            0.24322| 0.24322             0.6425            0.24322| 0.24322            0.24322             0.6425|] Cmatrix=[0                  0                  0| 0                  0                  0| 0                  0                  0|]
New Line.035520_035520a Phases=2 bus1=035520.1.3 bus2=035520a.1.3 Units=km Length=0.003048 Rmatrix=[0.12456            0.03762| 0.03762            0.12456|] Xmatrix=[ 0.6121            0.23447| 0.23447             0.6121|] Cmatrix=[0                  0| 0                  0|]
New Line.035521_035522 Phases=3 bus1=035521.1.2.3 bus2=035522.1.2.3 Units=km Length=0.018044 Rmatrix=[ 0.25131           0.062992           0.062992| 0.062992            0.25131           0.062992| 0.062992           0.062992            0.25131|] Xmatrix=[0.65223            0.24672            0.24672| 0.24672            0.65223            0.24672| 0.24672            0.24672            0.65223|] Cmatrix=[0                  0                  0| 0                  0                  0| 0                  0                  0|]
New Line.035520a_03552001 Phases=2 bus1=035520a.1.3 bus2=03552001.1.3 Units=km Length=0.07809 Rmatrix=[ 1.6358            0.13845| 0.13845             1.6358|] Xmatrix=[0.90256            0.39469| 0.39469            0.90256|] Cmatrix=[0                  0| 0                  0|]
New Line.035522_035523 Phases=3 bus1=035522.1.2.3 bus2=035523.1.2.3 Units=km Length=0.048463 Rmatrix=[ 0.25131           0.062992           0.062992| 0.062992            0.25131           0.062992| 0.062992           0.062992            0.25131|] Xmatrix=[0.65223            0.24672            0.24672| 0.24672            0.65223            0.24672| 0.24672            0.24672            0.65223|] Cmatrix=[0                  0                  0| 0                  0                  0| 0                  0                  0|]
New Line.035523_035524 Phases=3 bus1=035523.1.2.3 bus2=035524.1.2.3 Units=km Length=0.096012 Rmatrix=[ 0.25131           0.062992           0.062992| 0.062992            0.25131           0.062992| 0.062992           0.062992            0.25131|] Xmatrix=[0.65223            0.24672            0.24672| 0.24672            0.65223            0.24672| 0.24672            0.24672            0.65223|] Cmatrix=[0                  0                  0| 0                  0                  0| 0                  0                  0|]
New Line.035524_035524a Phases=3 bus1=035524.1.2.3 bus2=035524a.1.2.3 Units=km Length=0.003048 Rmatrix=[0.12456            0.03762            0.03762| 0.03762            0.12456            0.03762| 0.03762            0.03762            0.12456|] Xmatrix=[ 0.6121            0.23447            0.23447| 0.23447             0.6121            0.23447| 0.23447            0.23447             0.6121|] Cmatrix=[0                  0                  0| 0                  0                  0| 0                  0                  0|]
New Line.035524a_035525 Phases=3 bus1=035524a.1.2.3 bus2=035525.1.2.3 Units=km Length=0.063094 Rmatrix=[ 0.25131           0.062992           0.062992| 0.062992            0.25131           0.062992| 0.062992           0.062992            0.25131|] Xmatrix=[0.65223            0.24672            0.24672| 0.24672            0.65223            0.24672| 0.24672            0.24672            0.65223|] Cmatrix=[0                  0                  0| 0                  0                  0| 0                  0                  0|]
New Line.035525_03552501 Phases=3 bus1=035525.1.2.3 bus2=03552501.1.2.3 Units=km Length=0.04636 Rmatrix=[ 0.25131           0.062992           0.062992| 0.062992            0.25131           0.062992| 0.062992           0.062992            0.25131|] Xmatrix=[0.65223            0.24672            0.24672| 0.24672            0.65223            0.24672| 0.24672            0.24672            0.65223|] Cmatrix=[0                  0                  0| 0                  0                  0| 0                  0                  0|]
New Line.035525_035526 Phases=3 bus1=035525.1.2.3 bus2=035526.1.2.3 Units=km Length=0.021397 Rmatrix=[ 0.49377           0.097441           0.097441| 0.097441            0.49377           0.097441| 0.097441           0.097441            0.49377|] Xmatrix=[0.75372            0.28062            0.28062| 0.28062            0.75372            0.28062| 0.28062            0.28062            0.75372|] Cmatrix=[0                  0                  0| 0                  0                  0| 0                  0                  0|]
New Line.03552501_03552502 Phases=3 bus1=03552501.1.2.3 bus2=03552502.1.2.3 Units=km Length=0.053431 Rmatrix=[ 0.25131           0.062992           0.062992| 0.062992            0.25131           0.062992| 0.062992           0.062992            0.25131|] Xmatrix=[0.65223            0.24672            0.24672| 0.24672            0.65223            0.24672| 0.24672            0.24672            0.65223|] Cmatrix=[0                  0                  0| 0                  0                  0| 0                  0                  0|]
New Line.035526_03552601 Phases=3 bus1=035526.1.2.3 bus2=03552601.1.2.3 Units=km Length=0.12518 Rmatrix=[ 1.1475            0.13703            0.13703| 0.13703             1.1475            0.13703| 0.13703            0.13703             1.1475|] Xmatrix=[0.87981            0.35619            0.35619| 0.35619            0.87981            0.35619| 0.35619            0.35619            0.87981|] Cmatrix=[0                  0                  0| 0                  0                  0| 0                  0                  0|]
New Line.035526_035527 Phases=3 bus1=035526.1.2.3 bus2=035527.1.2.3 Units=km Length=0.018654 Rmatrix=[1.0822              0.139              0.139|  0.139             1.0822              0.139|  0.139              0.139             1.0822|] Xmatrix=[0.83869            0.34853            0.34853| 0.34853            0.83869            0.34853| 0.34853            0.34853            0.83869|] Cmatrix=[0                  0                  0| 0                  0                  0| 0                  0                  0|]
New Line.03552502_03552502a Phases=3 bus1=03552502.1.2.3 bus2=03552502a.1.2.3 Units=km Length=0.003048 Rmatrix=[0.12456            0.03762            0.03762| 0.03762            0.12456            0.03762| 0.03762            0.03762            0.12456|] Xmatrix=[ 0.6121            0.23447            0.23447| 0.23447             0.6121            0.23447| 0.23447            0.23447             0.6121|] Cmatrix=[0                  0                  0| 0                  0                  0| 0                  0                  0|]
New Line.03552502a_03552503 Phases=3 bus1=03552502a.1.2.3 bus2=03552503.1.2.3 Units=km Length=0.053005 Rmatrix=[ 0.25131           0.062992           0.062992| 0.062992            0.25131           0.062992| 0.062992           0.062992            0.25131|] Xmatrix=[0.65223            0.24672            0.24672| 0.24672            0.65223            0.24672| 0.24672            0.24672            0.65223|] Cmatrix=[0                  0                  0| 0                  0                  0| 0                  0                  0|]
New Line.03552503_03552510 Phases=3 bus1=03552503.1.2.3 bus2=03552510.1.2.3 Units=km Length=0.094701 Rmatrix=[ 0.25131           0.062992           0.062992| 0.062992            0.25131           0.062992| 0.062992           0.062992            0.25131|] Xmatrix=[0.65223            0.24672            0.24672| 0.24672            0.65223            0.24672| 0.24672            0.24672            0.65223|] Cmatrix=[0                  0                  0| 0                  0                  0| 0                  0                  0|]
New Line.03552503_03552503a Phases=3 bus1=03552503.1.2.3 bus2=03552503a.1.2.3 Units=km Length=0.003048 Rmatrix=[0.12456            0.03762            0.03762| 0.03762            0.12456            0.03762| 0.03762            0.03762            0.12456|] Xmatrix=[ 0.6121            0.23447            0.23447| 0.23447             0.6121            0.23447| 0.23447            0.23447             0.6121|] Cmatrix=[0                  0                  0| 0                  0                  0| 0                  0                  0|]
New Line.03552510_03552513 Phases=3 bus1=03552510.1.2.3 bus2=03552513.1.2.3 Units=km Length=0.14728 Rmatrix=[ 0.25131           0.062992           0.062992| 0.062992            0.25131           0.062992| 0.062992           0.062992            0.25131|] Xmatrix=[0.65223            0.24672            0.24672| 0.24672            0.65223            0.24672| 0.24672            0.24672            0.65223|] Cmatrix=[0                  0                  0| 0                  0                  0| 0                  0                  0|]
New Line.03552510_03552510a Phases=3 bus1=03552510.1.2.3 bus2=03552510a.1.2.3 Units=km Length=0.003048 Rmatrix=[0.12456            0.03762            0.03762| 0.03762            0.12456            0.03762| 0.03762            0.03762            0.12456|] Xmatrix=[ 0.6121            0.23447            0.23447| 0.23447             0.6121            0.23447| 0.23447            0.23447             0.6121|] Cmatrix=[0                  0                  0| 0                  0                  0| 0                  0                  0|]
New Line.03552503a_03552504 Phases=3 bus1=03552503a.1.2.3 bus2=03552504.1.2.3 Units=km Length=0.026518 Rmatrix=[0.64403            0.11385            0.11385| 0.11385            0.64403            0.11385| 0.11385            0.11385            0.64403|] Xmatrix=[0.78314            0.29823            0.29823| 0.29823            0.78314            0.29823| 0.29823            0.29823            0.78314|] Cmatrix=[0                  0                  0| 0                  0                  0| 0                  0                  0|]
New Line.03552504_03552509 Phases=1 bus1=03552504.1 bus2=03552509.1 Units=km Length=0.034747 Rmatrix=0.5935 Xmatrix=0.47277 Cmatrix=0
New Line.03552504_03552505 Phases=1 bus1=03552504.2 bus2=03552505.2 Units=km Length=0.075895 Rmatrix=0.5935 Xmatrix=0.47277 Cmatrix=0
New Line.03552504_03552507 Phases=1 bus1=03552504.3 bus2=03552507.3 Units=km Length=0.048463 Rmatrix=0.5935 Xmatrix=0.47277 Cmatrix=0
New Line.03552505_03552506 Phases=1 bus1=03552505.2 bus2=03552506.2 Units=km Length=0.064313 Rmatrix=0.5935 Xmatrix=0.47277 Cmatrix=0
New Line.03552507_03552508 Phases=1 bus1=03552507.3 bus2=03552508.3 Units=km Length=0.039319 Rmatrix=0.5935 Xmatrix=0.47277 Cmatrix=0
...